<connections>


<connection from="A1B1" to="B1B2" />
<connection from="A1B1" to="B1C1" />
<connection from="B1C1" to="C1D1" />
<connection from="C1D1" to="D1D2" />
<connection from="C1D1" to="D1E1" />
<connection from="D1E1" to="E1F1" />
<connection from="E1F1" to="F1F2" />
<connection from="E1F1" to="F1G1" />
<connection from="F1G1" to="G1H1" />
<connection from="G1H1" to="H1H2" />


<connection from="H2G2" to="G2G1" />
<connection from="H2G2" to="G2F2" />
<connection from="G2F2" to="F2E2" />
<connection from="G2F2" to="F2F3" />
<connection from="F2E2" to="E2E1" />
<connection from="F2E2" to="E2D2" />
<connection from="E2D2" to="D2C2" />
<connection from="E2D2" to="D2D3" />
<connection from="D2C2" to="C2C1" />
<connection from="D2C2" to="C2B2" />
<connection from="C2B2" to="B2A2" />
<connection from="C2B2" to="B2B3" />
<connection from="B2A2" to="A2A1" />


<connection from="A3B3" to="B3B4" />
<connection from="A3B3" to="B3C3" />
<connection from="B3C3" to="C3D3" />
<connection from="B3C3" to="C3C2" />
<connection from="C3D3" to="D3D4" />
<connection from="C3D3" to="D3E3" />
<connection from="D3E3" to="E3F3" />
<connection from="D3E3" to="E3E2" />
<connection from="E3F3" to="F3F4" />
<connection from="E3F3" to="F3G3" />
<connection from="F3G3" to="G3H3" />
<connection from="F3G3" to="G3G2" />
<connection from="G3H3" to="H3H4" />


<connection from="H4G4" to="G4G3" />
<connection from="H4G4" to="G4F4" />
<connection from="G4F4" to="F4E4" />
<connection from="G4F4" to="F4F5" />
<connection from="F4E4" to="E4E3" />
<connection from="F4E4" to="E4D4" />
<connection from="E4D4" to="D4C4" />
<connection from="E4D4" to="D4D5" />
<connection from="D4C4" to="C4C3" />
<connection from="D4C4" to="C4B4" />
<connection from="C4B4" to="B4A4" />
<connection from="C4B4" to="B4B5" />
<connection from="B4A4" to="A4A3" />


<connection from="A5B5" to="B5B6" />
<connection from="A5B5" to="B5C5" />
<connection from="B5C5" to="C5D5" />
<connection from="B5C5" to="C5C4" />
<connection from="C5D5" to="D5D6" />
<connection from="C5D5" to="D5E5" />
<connection from="D5E5" to="E5F5" />
<connection from="D5E5" to="E5E4" />
<connection from="E5F5" to="F5F6" />
<connection from="E5F5" to="F5G5" />
<connection from="F5G5" to="G5H5" />
<connection from="F5G5" to="G5G4" />
<connection from="G5H5" to="H5H6" />


<connection from="H6G6" to="G6G5" />
<connection from="H6G6" to="G6F6" />
<connection from="G6F6" to="F6E6" />
<connection from="G6F6" to="F6F7" />
<connection from="F6E6" to="E6E5" />
<connection from="F6E6" to="E6D6" />
<connection from="E6D6" to="D6C6" />
<connection from="E6D6" to="D6D7" />
<connection from="D6C6" to="C6C5" />
<connection from="D6C6" to="C6B6" />
<connection from="C6B6" to="B6A6" />
<connection from="C6B6" to="B6B7" />
<connection from="B6A6" to="A6A5" />


<connection from="A7B7" to="B7B8" />
<connection from="A7B7" to="B7C7" />
<connection from="B7C7" to="C7D7" />
<connection from="B7C7" to="C7C6" />
<connection from="C7D7" to="D7D8" />
<connection from="C7D7" to="D7E7" />
<connection from="D7E7" to="E7F7" />
<connection from="D7E7" to="E7E6" />
<connection from="E7F7" to="F7F8" />
<connection from="E7F7" to="F7G7" />
<connection from="F7G7" to="G7H7" />
<connection from="F7G7" to="G7G6" />
<connection from="G7H7" to="H7H8" />


<connection from="H8G8" to="G8G7" />
<connection from="H8G8" to="G8F8" />
<connection from="G8F8" to="F8E8" />
<connection from="F8E8" to="E8E7" />
<connection from="F8E8" to="E8D8" />
<connection from="E8D8" to="D8C8" />
<connection from="D8C8" to="C8C7" />
<connection from="D8C8" to="C8B8" />
<connection from="C8B8" to="B8A8" />
<connection from="B8A8" to="A8A7" />


<connection from="A8A7" to="A7B7" />
<connection from="A8A7" to="A7A6" />
<connection from="A7A6" to="A6A5" />
<connection from="A6A5" to="A5B5" />
<connection from="A6A5" to="A5A4" />
<connection from="A5A4" to="A4A3" />
<connection from="A4A3" to="A3B3" />
<connection from="A4A3" to="A3A2" />
<connection from="A3A2" to="A2A1" />
<connection from="A2A1" to="A1B1" />


<connection from="B1B2" to="B2A2" />
<connection from="B1B2" to="B2B3" />
<connection from="B2B3" to="B3C3" />
<connection from="B2B3" to="B3B4" />
<connection from="B3B4" to="B4A4" />
<connection from="B3B4" to="B4B5" />
<connection from="B4B5" to="B5C5" />
<connection from="B4B5" to="B5B6" />
<connection from="B5B6" to="B6A6" />
<connection from="B5B6" to="B6B7" />
<connection from="B6B7" to="B7C7" />
<connection from="B6B7" to="B7B8" />
<connection from="B7B8" to="B8A8" />


<connection from="C8C7" to="C7D7" />
<connection from="C8C7" to="C7C6" />
<connection from="C7C6" to="C6C5" />
<connection from="C7C6" to="C6B6" />
<connection from="C6C5" to="C5D5" />
<connection from="C6C5" to="C5C4" />
<connection from="C5C4" to="C4C3" />
<connection from="C5C4" to="C4B4" />
<connection from="C4C3" to="C3D3" />
<connection from="C4C3" to="C3C2" />
<connection from="C3C2" to="C2C1" />
<connection from="C3C2" to="C2B2" />
<connection from="C2C1" to="C1D1" />


<connection from="D1D2" to="D2C2" />
<connection from="D1D2" to="D2D3" />
<connection from="D2D3" to="D3E3" />
<connection from="D2D3" to="D3D4" />
<connection from="D3D4" to="D4C4" />
<connection from="D3D4" to="D4D5" />
<connection from="D4D5" to="D5E5" />
<connection from="D4D5" to="D5D6" />
<connection from="D5D6" to="D6C6" />
<connection from="D5D6" to="D6D7" />
<connection from="D6D7" to="D7E7" />
<connection from="D6D7" to="D7D8" />
<connection from="D7D8" to="D8C8" />


<connection from="E8E7" to="E7F7" />
<connection from="E8E7" to="E7E6" />
<connection from="E7E6" to="E6E5" />
<connection from="E7E6" to="E6D6" />
<connection from="E6E5" to="E5F5" />
<connection from="E6E5" to="E5E4" />
<connection from="E5E4" to="E4E3" />
<connection from="E5E4" to="E4D4" />
<connection from="E4E3" to="E3F3" />
<connection from="E4E3" to="E3E2" />
<connection from="E3E2" to="E2E1" />
<connection from="E3E2" to="E2D2" />
<connection from="E2E1" to="E1F1" />


<connection from="F1F2" to="F2E2" />
<connection from="F1F2" to="F2F3" />
<connection from="F2F3" to="F3G3" />
<connection from="F2F3" to="F3F4" />
<connection from="F3F4" to="F4E4" />
<connection from="F3F4" to="F4F5" />
<connection from="F4F5" to="F5G5" />
<connection from="F4F5" to="F5F6" />
<connection from="F5F6" to="F6E6" />
<connection from="F5F6" to="F6F7" />
<connection from="F6F7" to="F7G7" />
<connection from="F6F7" to="F7F8" />
<connection from="F7F8" to="F8E8" />


<connection from="G8G7" to="G7H7" />
<connection from="G8G7" to="G7G6" />
<connection from="G7G6" to="G6G5" />
<connection from="G7G6" to="G6F6" />
<connection from="G6G5" to="G5H5" />
<connection from="G6G5" to="G5G4" />
<connection from="G5G4" to="G4G3" />
<connection from="G5G4" to="G4F4" />
<connection from="G4G3" to="G3H3" />
<connection from="G4G3" to="G3G2" />
<connection from="G3G2" to="G2G1" />
<connection from="G3G2" to="G2F2" />
<connection from="G2G1" to="G1H1" />


<connection from="H1H2" to="H2G2" />
<connection from="H1H2" to="H2H3" />
<connection from="H2H3" to="H3H4" />
<connection from="H3H4" to="H4G4" />
<connection from="H3H4" to="H4H5" />
<connection from="H4H5" to="H5H6" />
<connection from="H5H6" to="H6G6" />
<connection from="H5H6" to="H6H7" />
<connection from="H6H7" to="H7H8" />
<connection from="H7H8" to="H8G8" />
</connections>
