<nodes>
	<node id="A1" x="200" y="200" type="priority" />
	<node id="B1" x="300" y="200" type="priority" />
	<node id="C1" x="400" y="200" type="priority" />
	<node id="D1" x="500" y="200" type="priority" />
	<node id="E1" x="600" y="200" type="priority" />
	<node id="F1" x="700" y="200" type="priority" />
	<node id="G1" x="800" y="200" type="priority" />
	<node id="H1" x="900" y="200" type="priority" />
	<node id="A2" x="200" y="300" type="priority" />
	<node id="B2" x="300" y="300" type="traffic_light" />
	<node id="C2" x="400" y="300" type="traffic_light" />
	<node id="D2" x="500" y="300" type="traffic_light" />
	<node id="E2" x="600" y="300" type="traffic_light" />
	<node id="F2" x="700" y="300" type="traffic_light" />
	<node id="G2" x="800" y="300" type="traffic_light" />
	<node id="H2" x="900" y="300" type="priority" />
	<node id="A3" x="200" y="400" type="priority" />
	<node id="B3" x="300" y="400" type="traffic_light" />
	<node id="C3" x="400" y="400" type="traffic_light" />
	<node id="D3" x="500" y="400" type="traffic_light" />
	<node id="E3" x="600" y="400" type="traffic_light" />
	<node id="F3" x="700" y="400" type="traffic_light" />
	<node id="G3" x="800" y="400" type="traffic_light" />
	<node id="H3" x="900" y="400" type="priority" />
	<node id="A4" x="200" y="500" type="priority" />
	<node id="B4" x="300" y="500" type="traffic_light" />
	<node id="C4" x="400" y="500" type="traffic_light" />
	<node id="D4" x="500" y="500" type="traffic_light" />
	<node id="E4" x="600" y="500" type="traffic_light" />
	<node id="F4" x="700" y="500" type="traffic_light" />
	<node id="G4" x="800" y="500" type="traffic_light" />
	<node id="H4" x="900" y="500" type="priority" />
	<node id="A5" x="200" y="600" type="priority" />
	<node id="B5" x="300" y="600" type="traffic_light" />
	<node id="C5" x="400" y="600" type="traffic_light" />
	<node id="D5" x="500" y="600" type="traffic_light" />
	<node id="E5" x="600" y="600" type="traffic_light" />
	<node id="F5" x="700" y="600" type="traffic_light" />
	<node id="G5" x="800" y="600" type="traffic_light" />
	<node id="H5" x="900" y="600" type="priority" />
	<node id="A6" x="200" y="700" type="priority" />
	<node id="B6" x="300" y="700" type="traffic_light" />
	<node id="C6" x="400" y="700" type="traffic_light" />
	<node id="D6" x="500" y="700" type="traffic_light" />
	<node id="E6" x="600" y="700" type="traffic_light" />
	<node id="F6" x="700" y="700" type="traffic_light" />
	<node id="G6" x="800" y="700" type="traffic_light" />
	<node id="H6" x="900" y="700" type="priority" />
	<node id="A7" x="200" y="800" type="priority" />
	<node id="B7" x="300" y="800" type="traffic_light" />
	<node id="C7" x="400" y="800" type="traffic_light" />
	<node id="D7" x="500" y="800" type="traffic_light" />
	<node id="E7" x="600" y="800" type="traffic_light" />
	<node id="F7" x="700" y="800" type="traffic_light" />
	<node id="G7" x="800" y="800" type="traffic_light" />
	<node id="H7" x="900" y="800" type="priority" />
	<node id="A8" x="200" y="900" type="priority" />
	<node id="B8" x="300" y="900" type="priority" />
	<node id="C8" x="400" y="900" type="priority" />
	<node id="D8" x="500" y="900" type="priority" />
	<node id="E8" x="600" y="900" type="priority" />
	<node id="F8" x="700" y="900" type="priority" />
	<node id="G8" x="800" y="900" type="priority" />
	<node id="H8" x="900" y="900" type="priority" />
</nodes>
