<edges>
<edge id="A1B1" from="A1" to="B1" priority="3" numLanes="1" speed="19.444" />
<edge id="B1C1" from="B1" to="C1" priority="3" numLanes="1" speed="19.444" />
<edge id="C1D1" from="C1" to="D1" priority="3" numLanes="1" speed="19.444" />
<edge id="D1E1" from="D1" to="E1" priority="3" numLanes="1" speed="19.444" />
<edge id="E1F1" from="E1" to="F1" priority="3" numLanes="1" speed="19.444" />
<edge id="F1G1" from="F1" to="G1" priority="3" numLanes="1" speed="19.444" />
<edge id="G1H1" from="G1" to="H1" priority="3" numLanes="1" speed="19.444" />
<edge id="H2G2" from="H2" to="G2" priority="3" numLanes="1" speed="19.444" />
<edge id="G2F2" from="G2" to="F2" priority="3" numLanes="1" speed="19.444" />
<edge id="F2E2" from="F2" to="E2" priority="3" numLanes="1" speed="19.444" />
<edge id="E2D2" from="E2" to="D2" priority="3" numLanes="1" speed="19.444" />
<edge id="D2C2" from="D2" to="C2" priority="3" numLanes="1" speed="19.444" />
<edge id="C2B2" from="C2" to="B2" priority="3" numLanes="1" speed="19.444" />
<edge id="B2A2" from="B2" to="A2" priority="3" numLanes="1" speed="19.444" />
<edge id="A3B3" from="A3" to="B3" priority="3" numLanes="1" speed="19.444" />
<edge id="B3C3" from="B3" to="C3" priority="3" numLanes="1" speed="19.444" />
<edge id="C3D3" from="C3" to="D3" priority="3" numLanes="1" speed="19.444" />
<edge id="D3E3" from="D3" to="E3" priority="3" numLanes="1" speed="19.444" />
<edge id="E3F3" from="E3" to="F3" priority="3" numLanes="1" speed="19.444" />
<edge id="F3G3" from="F3" to="G3" priority="3" numLanes="1" speed="19.444" />
<edge id="G3H3" from="G3" to="H3" priority="3" numLanes="1" speed="19.444" />
<edge id="H4G4" from="H4" to="G4" priority="3" numLanes="1" speed="19.444" />
<edge id="G4F4" from="G4" to="F4" priority="3" numLanes="1" speed="19.444" />
<edge id="F4E4" from="F4" to="E4" priority="3" numLanes="1" speed="19.444" />
<edge id="E4D4" from="E4" to="D4" priority="3" numLanes="1" speed="19.444" />
<edge id="D4C4" from="D4" to="C4" priority="3" numLanes="1" speed="19.444" />
<edge id="C4B4" from="C4" to="B4" priority="3" numLanes="1" speed="19.444" />
<edge id="B4A4" from="B4" to="A4" priority="3" numLanes="1" speed="19.444" />
<edge id="A5B5" from="A5" to="B5" priority="3" numLanes="1" speed="19.444" />
<edge id="B5C5" from="B5" to="C5" priority="3" numLanes="1" speed="19.444" />
<edge id="C5D5" from="C5" to="D5" priority="3" numLanes="1" speed="19.444" />
<edge id="D5E5" from="D5" to="E5" priority="3" numLanes="1" speed="19.444" />
<edge id="E5F5" from="E5" to="F5" priority="3" numLanes="1" speed="19.444" />
<edge id="F5G5" from="F5" to="G5" priority="3" numLanes="1" speed="19.444" />
<edge id="G5H5" from="G5" to="H5" priority="3" numLanes="1" speed="19.444" />
<edge id="H6G6" from="H6" to="G6" priority="3" numLanes="1" speed="19.444" />
<edge id="G6F6" from="G6" to="F6" priority="3" numLanes="1" speed="19.444" />
<edge id="F6E6" from="F6" to="E6" priority="3" numLanes="1" speed="19.444" />
<edge id="E6D6" from="E6" to="D6" priority="3" numLanes="1" speed="19.444" />
<edge id="D6C6" from="D6" to="C6" priority="3" numLanes="1" speed="19.444" />
<edge id="C6B6" from="C6" to="B6" priority="3" numLanes="1" speed="19.444" />
<edge id="B6A6" from="B6" to="A6" priority="3" numLanes="1" speed="19.444" />
<edge id="A7B7" from="A7" to="B7" priority="3" numLanes="1" speed="19.444" />
<edge id="B7C7" from="B7" to="C7" priority="3" numLanes="1" speed="19.444" />
<edge id="C7D7" from="C7" to="D7" priority="3" numLanes="1" speed="19.444" />
<edge id="D7E7" from="D7" to="E7" priority="3" numLanes="1" speed="19.444" />
<edge id="E7F7" from="E7" to="F7" priority="3" numLanes="1" speed="19.444" />
<edge id="F7G7" from="F7" to="G7" priority="3" numLanes="1" speed="19.444" />
<edge id="G7H7" from="G7" to="H7" priority="3" numLanes="1" speed="19.444" />
<edge id="H8G8" from="H8" to="G8" priority="3" numLanes="1" speed="19.444" />
<edge id="G8F8" from="G8" to="F8" priority="3" numLanes="1" speed="19.444" />
<edge id="F8E8" from="F8" to="E8" priority="3" numLanes="1" speed="19.444" />
<edge id="E8D8" from="E8" to="D8" priority="3" numLanes="1" speed="19.444" />
<edge id="D8C8" from="D8" to="C8" priority="3" numLanes="1" speed="19.444" />
<edge id="C8B8" from="C8" to="B8" priority="3" numLanes="1" speed="19.444" />
<edge id="B8A8" from="B8" to="A8" priority="3" numLanes="1" speed="19.444" />
<edge id="A8A7" from="A8" to="A7" priority="1" numLanes="1" speed="19.444" />
<edge id="A7A6" from="A7" to="A6" priority="1" numLanes="1" speed="19.444" />
<edge id="A6A5" from="A6" to="A5" priority="1" numLanes="1" speed="19.444" />
<edge id="A5A4" from="A5" to="A4" priority="1" numLanes="1" speed="19.444" />
<edge id="A4A3" from="A4" to="A3" priority="1" numLanes="1" speed="19.444" />
<edge id="A3A2" from="A3" to="A2" priority="1" numLanes="1" speed="19.444" />
<edge id="A2A1" from="A2" to="A1" priority="1" numLanes="1" speed="19.444" />
<edge id="B1B2" from="B1" to="B2" priority="1" numLanes="1" speed="19.444" />
<edge id="B2B3" from="B2" to="B3" priority="1" numLanes="1" speed="19.444" />
<edge id="B3B4" from="B3" to="B4" priority="1" numLanes="1" speed="19.444" />
<edge id="B4B5" from="B4" to="B5" priority="1" numLanes="1" speed="19.444" />
<edge id="B5B6" from="B5" to="B6" priority="1" numLanes="1" speed="19.444" />
<edge id="B6B7" from="B6" to="B7" priority="1" numLanes="1" speed="19.444" />
<edge id="B7B8" from="B7" to="B8" priority="1" numLanes="1" speed="19.444" />
<edge id="C8C7" from="C8" to="C7" priority="1" numLanes="1" speed="19.444" />
<edge id="C7C6" from="C7" to="C6" priority="1" numLanes="1" speed="19.444" />
<edge id="C6C5" from="C6" to="C5" priority="1" numLanes="1" speed="19.444" />
<edge id="C5C4" from="C5" to="C4" priority="1" numLanes="1" speed="19.444" />
<edge id="C4C3" from="C4" to="C3" priority="1" numLanes="1" speed="19.444" />
<edge id="C3C2" from="C3" to="C2" priority="1" numLanes="1" speed="19.444" />
<edge id="C2C1" from="C2" to="C1" priority="1" numLanes="1" speed="19.444" />
<edge id="D1D2" from="D1" to="D2" priority="1" numLanes="1" speed="19.444" />
<edge id="D2D3" from="D2" to="D3" priority="1" numLanes="1" speed="19.444" />
<edge id="D3D4" from="D3" to="D4" priority="1" numLanes="1" speed="19.444" />
<edge id="D4D5" from="D4" to="D5" priority="1" numLanes="1" speed="19.444" />
<edge id="D5D6" from="D5" to="D6" priority="1" numLanes="1" speed="19.444" />
<edge id="D6D7" from="D6" to="D7" priority="1" numLanes="1" speed="19.444" />
<edge id="D7D8" from="D7" to="D8" priority="1" numLanes="1" speed="19.444" />
<edge id="E8E7" from="E8" to="E7" priority="1" numLanes="1" speed="19.444" />
<edge id="E7E6" from="E7" to="E6" priority="1" numLanes="1" speed="19.444" />
<edge id="E6E5" from="E6" to="E5" priority="1" numLanes="1" speed="19.444" />
<edge id="E5E4" from="E5" to="E4" priority="1" numLanes="1" speed="19.444" />
<edge id="E4E3" from="E4" to="E3" priority="1" numLanes="1" speed="19.444" />
<edge id="E3E2" from="E3" to="E2" priority="1" numLanes="1" speed="19.444" />
<edge id="E2E1" from="E2" to="E1" priority="1" numLanes="1" speed="19.444" />
<edge id="F1F2" from="F1" to="F2" priority="1" numLanes="1" speed="19.444" />
<edge id="F2F3" from="F2" to="F3" priority="1" numLanes="1" speed="19.444" />
<edge id="F3F4" from="F3" to="F4" priority="1" numLanes="1" speed="19.444" />
<edge id="F4F5" from="F4" to="F5" priority="1" numLanes="1" speed="19.444" />
<edge id="F5F6" from="F5" to="F6" priority="1" numLanes="1" speed="19.444" />
<edge id="F6F7" from="F6" to="F7" priority="1" numLanes="1" speed="19.444" />
<edge id="F7F8" from="F7" to="F8" priority="1" numLanes="1" speed="19.444" />
<edge id="G8G7" from="G8" to="G7" priority="1" numLanes="1" speed="19.444" />
<edge id="G7G6" from="G7" to="G6" priority="1" numLanes="1" speed="19.444" />
<edge id="G6G5" from="G6" to="G5" priority="1" numLanes="1" speed="19.444" />
<edge id="G5G4" from="G5" to="G4" priority="1" numLanes="1" speed="19.444" />
<edge id="G4G3" from="G4" to="G3" priority="1" numLanes="1" speed="19.444" />
<edge id="G3G2" from="G3" to="G2" priority="1" numLanes="1" speed="19.444" />
<edge id="G2G1" from="G2" to="G1" priority="1" numLanes="1" speed="19.444" />
<edge id="H1H2" from="H1" to="H2" priority="1" numLanes="1" speed="19.444" />
<edge id="H2H3" from="H2" to="H3" priority="1" numLanes="1" speed="19.444" />
<edge id="H3H4" from="H3" to="H4" priority="1" numLanes="1" speed="19.444" />
<edge id="H4H5" from="H4" to="H5" priority="1" numLanes="1" speed="19.444" />
<edge id="H5H6" from="H5" to="H6" priority="1" numLanes="1" speed="19.444" />
<edge id="H6H7" from="H6" to="H7" priority="1" numLanes="1" speed="19.444" />
<edge id="H7H8" from="H7" to="H8" priority="1" numLanes="1" speed="19.444" />
</edges>
