<?xml version="1.0" encoding="UTF-8"?>

<!-- generated on 10/24/12 00:43:36 by SUMO netconvert Version 0.15.0
<?xml version="1.0" encoding="UTF-8"?>

<configuration xmlns:xsi="http://www.w3.org/2001/XMLSchema-instance" xsi:noNamespaceSchemaLocation="http://sumo.sf.net/xsd/netconvertConfiguration.xsd">

    <input>
        <node-files value="net.nod.xml"/>
        <edge-files value="net.edg.xml"/>
        <connection-files value="net.con.xml"/>
    </input>

    <output>
        <output-file value="net.net.xml"/>
    </output>

    <processing>
        <no-turnarounds value="true"/>
    </processing>

</configuration>
-->

<net version="0.13" xmlns:xsi="http://www.w3.org/2001/XMLSchema-instance" xsi:noNamespaceSchemaLocation="http://sumo.sf.net/xsd/net_file.xsd">

    <location netOffset="-200.00,-200.00" convBoundary="0.00,0.00,700.00,700.00" origBoundary="200.00,200.00,900.00,900.00" projParameter="!"/>

    <edge id=":A1_0" function="internal">
        <lane id=":A1_0_0" index="0" speed="19.44" length="2.58" shape="-1.65,-0.05 -1.55,-0.75 -1.25,-1.25 -0.75,-1.55 -0.05,-1.65"/>
    </edge>
    <edge id=":A2_0" function="internal">
        <lane id=":A2_0_0" index="0" speed="19.44" length="6.20" shape="-1.65,104.75 -1.65,98.55"/>
    </edge>
    <edge id=":A2_1" function="internal">
        <lane id=":A2_1_0" index="0" speed="19.44" length="5.00" shape="1.45,101.65 0.09,101.46 -0.87,100.88 -1.46,99.91 -1.65,98.55"/>
    </edge>
    <edge id=":A3_0" function="internal">
        <lane id=":A3_0_0" index="0" speed="19.44" length="6.20" shape="-1.65,201.45 -1.65,195.25"/>
    </edge>
    <edge id=":A3_1" function="internal">
        <lane id=":A3_1_0" index="0" speed="19.44" length="5.00" shape="-1.65,201.45 -1.46,200.09 -0.88,199.13 0.09,198.54 1.45,198.35"/>
    </edge>
    <edge id=":A4_0" function="internal">
        <lane id=":A4_0_0" index="0" speed="19.44" length="6.20" shape="-1.65,304.75 -1.65,298.55"/>
    </edge>
    <edge id=":A4_1" function="internal">
        <lane id=":A4_1_0" index="0" speed="19.44" length="5.00" shape="1.45,301.65 0.09,301.46 -0.87,300.88 -1.46,299.91 -1.65,298.55"/>
    </edge>
    <edge id=":A5_0" function="internal">
        <lane id=":A5_0_0" index="0" speed="19.44" length="6.20" shape="-1.65,401.45 -1.65,395.25"/>
    </edge>
    <edge id=":A5_1" function="internal">
        <lane id=":A5_1_0" index="0" speed="19.44" length="5.00" shape="-1.65,401.45 -1.46,400.09 -0.88,399.13 0.09,398.54 1.45,398.35"/>
    </edge>
    <edge id=":A6_0" function="internal">
        <lane id=":A6_0_0" index="0" speed="19.44" length="6.20" shape="-1.65,504.75 -1.65,498.55"/>
    </edge>
    <edge id=":A6_1" function="internal">
        <lane id=":A6_1_0" index="0" speed="19.44" length="5.00" shape="1.45,501.65 0.09,501.46 -0.87,500.87 -1.46,499.91 -1.65,498.55"/>
    </edge>
    <edge id=":A7_0" function="internal">
        <lane id=":A7_0_0" index="0" speed="19.44" length="6.20" shape="-1.65,601.45 -1.65,595.25"/>
    </edge>
    <edge id=":A7_1" function="internal">
        <lane id=":A7_1_0" index="0" speed="19.44" length="5.00" shape="-1.65,601.45 -1.46,600.09 -0.88,599.13 0.09,598.54 1.45,598.35"/>
    </edge>
    <edge id=":A8_0" function="internal">
        <lane id=":A8_0_0" index="0" speed="19.44" length="2.58" shape="-0.05,701.65 -0.75,701.55 -1.25,701.25 -1.55,700.75 -1.65,700.05"/>
    </edge>
    <edge id=":B1_0" function="internal">
        <lane id=":B1_0_0" index="0" speed="19.44" length="6.20" shape="98.55,-1.65 104.75,-1.65"/>
    </edge>
    <edge id=":B1_1" function="internal">
        <lane id=":B1_1_0" index="0" speed="19.44" length="5.00" shape="98.55,-1.65 99.91,-1.46 100.88,-0.88 101.46,0.09 101.65,1.45"/>
    </edge>
    <edge id=":B2_0" function="internal">
        <lane id=":B2_0_0" index="0" speed="19.44" length="5.00" shape="104.75,101.65 103.39,101.84 102.43,102.43 101.84,103.39 101.65,104.75"/>
    </edge>
    <edge id=":B2_1" function="internal">
        <lane id=":B2_1_0" index="0" speed="19.44" length="6.20" shape="104.75,101.65 98.55,101.65"/>
    </edge>
    <edge id=":B2_2" function="internal">
        <lane id=":B2_2_0" index="0" speed="19.44" length="6.20" shape="101.65,98.55 101.65,104.75"/>
    </edge>
    <edge id=":B2_3" function="internal">
        <lane id=":B2_3_0" index="0" speed="19.44" length="5.00" shape="101.65,98.55 101.46,99.91 100.88,100.88 99.91,101.46 98.55,101.65"/>
    </edge>
    <edge id=":B3_0" function="internal">
        <lane id=":B3_0_0" index="0" speed="19.44" length="5.00" shape="101.65,195.25 101.84,196.61 102.43,197.58 103.39,198.16 104.75,198.35"/>
    </edge>
    <edge id=":B3_1" function="internal">
        <lane id=":B3_1_0" index="0" speed="19.44" length="6.20" shape="101.65,195.25 101.65,201.45"/>
    </edge>
    <edge id=":B3_2" function="internal">
        <lane id=":B3_2_0" index="0" speed="19.44" length="6.20" shape="98.55,198.35 104.75,198.35"/>
    </edge>
    <edge id=":B3_3" function="internal">
        <lane id=":B3_3_0" index="0" speed="19.44" length="5.00" shape="98.55,198.35 99.91,198.54 100.88,199.13 101.46,200.09 101.65,201.45"/>
    </edge>
    <edge id=":B4_0" function="internal">
        <lane id=":B4_0_0" index="0" speed="19.44" length="5.00" shape="104.75,301.65 103.39,301.84 102.43,302.42 101.84,303.39 101.65,304.75"/>
    </edge>
    <edge id=":B4_1" function="internal">
        <lane id=":B4_1_0" index="0" speed="19.44" length="6.20" shape="104.75,301.65 98.55,301.65"/>
    </edge>
    <edge id=":B4_2" function="internal">
        <lane id=":B4_2_0" index="0" speed="19.44" length="6.20" shape="101.65,298.55 101.65,304.75"/>
    </edge>
    <edge id=":B4_3" function="internal">
        <lane id=":B4_3_0" index="0" speed="19.44" length="5.00" shape="101.65,298.55 101.46,299.91 100.88,300.88 99.91,301.46 98.55,301.65"/>
    </edge>
    <edge id=":B5_0" function="internal">
        <lane id=":B5_0_0" index="0" speed="19.44" length="5.00" shape="101.65,395.25 101.84,396.61 102.43,397.58 103.39,398.16 104.75,398.35"/>
    </edge>
    <edge id=":B5_1" function="internal">
        <lane id=":B5_1_0" index="0" speed="19.44" length="6.20" shape="101.65,395.25 101.65,401.45"/>
    </edge>
    <edge id=":B5_2" function="internal">
        <lane id=":B5_2_0" index="0" speed="19.44" length="6.20" shape="98.55,398.35 104.75,398.35"/>
    </edge>
    <edge id=":B5_3" function="internal">
        <lane id=":B5_3_0" index="0" speed="19.44" length="5.00" shape="98.55,398.35 99.91,398.54 100.88,399.13 101.46,400.09 101.65,401.45"/>
    </edge>
    <edge id=":B6_0" function="internal">
        <lane id=":B6_0_0" index="0" speed="19.44" length="5.00" shape="104.75,501.65 103.39,501.84 102.43,502.42 101.84,503.39 101.65,504.75"/>
    </edge>
    <edge id=":B6_1" function="internal">
        <lane id=":B6_1_0" index="0" speed="19.44" length="6.20" shape="104.75,501.65 98.55,501.65"/>
    </edge>
    <edge id=":B6_2" function="internal">
        <lane id=":B6_2_0" index="0" speed="19.44" length="6.20" shape="101.65,498.55 101.65,504.75"/>
    </edge>
    <edge id=":B6_3" function="internal">
        <lane id=":B6_3_0" index="0" speed="19.44" length="5.00" shape="101.65,498.55 101.46,499.91 100.88,500.88 99.91,501.46 98.55,501.65"/>
    </edge>
    <edge id=":B7_0" function="internal">
        <lane id=":B7_0_0" index="0" speed="19.44" length="5.00" shape="101.65,595.25 101.84,596.61 102.43,597.58 103.39,598.16 104.75,598.35"/>
    </edge>
    <edge id=":B7_1" function="internal">
        <lane id=":B7_1_0" index="0" speed="19.44" length="6.20" shape="101.65,595.25 101.65,601.45"/>
    </edge>
    <edge id=":B7_2" function="internal">
        <lane id=":B7_2_0" index="0" speed="19.44" length="6.20" shape="98.55,598.35 104.75,598.35"/>
    </edge>
    <edge id=":B7_3" function="internal">
        <lane id=":B7_3_0" index="0" speed="19.44" length="5.00" shape="98.55,598.35 99.91,598.54 100.88,599.13 101.46,600.09 101.65,601.45"/>
    </edge>
    <edge id=":B8_0" function="internal">
        <lane id=":B8_0_0" index="0" speed="19.44" length="6.20" shape="104.75,701.65 98.55,701.65"/>
    </edge>
    <edge id=":B8_1" function="internal">
        <lane id=":B8_1_0" index="0" speed="19.44" length="5.00" shape="101.65,698.55 101.46,699.91 100.88,700.88 99.91,701.46 98.55,701.65"/>
    </edge>
    <edge id=":C1_0" function="internal">
        <lane id=":C1_0_0" index="0" speed="19.44" length="5.00" shape="198.35,1.45 198.54,0.09 199.13,-0.87 200.09,-1.46 201.45,-1.65"/>
    </edge>
    <edge id=":C1_1" function="internal">
        <lane id=":C1_1_0" index="0" speed="19.44" length="6.20" shape="195.25,-1.65 201.45,-1.65"/>
    </edge>
    <edge id=":C2_0" function="internal">
        <lane id=":C2_0_0" index="0" speed="19.44" length="5.00" shape="198.35,104.75 198.16,103.39 197.57,102.43 196.61,101.84 195.25,101.65"/>
    </edge>
    <edge id=":C2_1" function="internal">
        <lane id=":C2_1_0" index="0" speed="19.44" length="6.20" shape="198.35,104.75 198.35,98.55"/>
    </edge>
    <edge id=":C2_2" function="internal">
        <lane id=":C2_2_0" index="0" speed="19.44" length="6.20" shape="201.45,101.65 195.25,101.65"/>
    </edge>
    <edge id=":C2_3" function="internal">
        <lane id=":C2_3_0" index="0" speed="19.44" length="5.00" shape="201.45,101.65 200.09,101.46 199.13,100.88 198.54,99.91 198.35,98.55"/>
    </edge>
    <edge id=":C3_0" function="internal">
        <lane id=":C3_0_0" index="0" speed="19.44" length="6.20" shape="198.35,201.45 198.35,195.25"/>
    </edge>
    <edge id=":C3_1" function="internal">
        <lane id=":C3_1_0" index="0" speed="19.44" length="5.00" shape="198.35,201.45 198.54,200.09 199.13,199.13 200.09,198.54 201.45,198.35"/>
    </edge>
    <edge id=":C3_2" function="internal">
        <lane id=":C3_2_0" index="0" speed="19.44" length="5.00" shape="195.25,198.35 196.61,198.16 197.58,197.57 198.16,196.61 198.35,195.25"/>
    </edge>
    <edge id=":C3_3" function="internal">
        <lane id=":C3_3_0" index="0" speed="19.44" length="6.20" shape="195.25,198.35 201.45,198.35"/>
    </edge>
    <edge id=":C4_0" function="internal">
        <lane id=":C4_0_0" index="0" speed="19.44" length="5.00" shape="198.35,304.75 198.16,303.39 197.57,302.42 196.61,301.84 195.25,301.65"/>
    </edge>
    <edge id=":C4_1" function="internal">
        <lane id=":C4_1_0" index="0" speed="19.44" length="6.20" shape="198.35,304.75 198.35,298.55"/>
    </edge>
    <edge id=":C4_2" function="internal">
        <lane id=":C4_2_0" index="0" speed="19.44" length="6.20" shape="201.45,301.65 195.25,301.65"/>
    </edge>
    <edge id=":C4_3" function="internal">
        <lane id=":C4_3_0" index="0" speed="19.44" length="5.00" shape="201.45,301.65 200.09,301.46 199.13,300.88 198.54,299.91 198.35,298.55"/>
    </edge>
    <edge id=":C5_0" function="internal">
        <lane id=":C5_0_0" index="0" speed="19.44" length="6.20" shape="198.35,401.45 198.35,395.25"/>
    </edge>
    <edge id=":C5_1" function="internal">
        <lane id=":C5_1_0" index="0" speed="19.44" length="5.00" shape="198.35,401.45 198.54,400.09 199.13,399.13 200.09,398.54 201.45,398.35"/>
    </edge>
    <edge id=":C5_2" function="internal">
        <lane id=":C5_2_0" index="0" speed="19.44" length="5.00" shape="195.25,398.35 196.61,398.16 197.58,397.58 198.16,396.61 198.35,395.25"/>
    </edge>
    <edge id=":C5_3" function="internal">
        <lane id=":C5_3_0" index="0" speed="19.44" length="6.20" shape="195.25,398.35 201.45,398.35"/>
    </edge>
    <edge id=":C6_0" function="internal">
        <lane id=":C6_0_0" index="0" speed="19.44" length="5.00" shape="198.35,504.75 198.16,503.39 197.57,502.42 196.61,501.84 195.25,501.65"/>
    </edge>
    <edge id=":C6_1" function="internal">
        <lane id=":C6_1_0" index="0" speed="19.44" length="6.20" shape="198.35,504.75 198.35,498.55"/>
    </edge>
    <edge id=":C6_2" function="internal">
        <lane id=":C6_2_0" index="0" speed="19.44" length="6.20" shape="201.45,501.65 195.25,501.65"/>
    </edge>
    <edge id=":C6_3" function="internal">
        <lane id=":C6_3_0" index="0" speed="19.44" length="5.00" shape="201.45,501.65 200.09,501.46 199.13,500.87 198.54,499.91 198.35,498.55"/>
    </edge>
    <edge id=":C7_0" function="internal">
        <lane id=":C7_0_0" index="0" speed="19.44" length="6.20" shape="198.35,601.45 198.35,595.25"/>
    </edge>
    <edge id=":C7_1" function="internal">
        <lane id=":C7_1_0" index="0" speed="19.44" length="5.00" shape="198.35,601.45 198.54,600.09 199.13,599.13 200.09,598.54 201.45,598.35"/>
    </edge>
    <edge id=":C7_2" function="internal">
        <lane id=":C7_2_0" index="0" speed="19.44" length="5.00" shape="195.25,598.35 196.61,598.16 197.58,597.58 198.16,596.61 198.35,595.25"/>
    </edge>
    <edge id=":C7_3" function="internal">
        <lane id=":C7_3_0" index="0" speed="19.44" length="6.20" shape="195.25,598.35 201.45,598.35"/>
    </edge>
    <edge id=":C8_0" function="internal">
        <lane id=":C8_0_0" index="0" speed="19.44" length="6.20" shape="201.45,701.65 195.25,701.65"/>
    </edge>
    <edge id=":C8_1" function="internal">
        <lane id=":C8_1_0" index="0" speed="19.44" length="5.00" shape="201.45,701.65 200.09,701.46 199.13,700.88 198.54,699.91 198.35,698.55"/>
    </edge>
    <edge id=":D1_0" function="internal">
        <lane id=":D1_0_0" index="0" speed="19.44" length="6.20" shape="298.55,-1.65 304.75,-1.65"/>
    </edge>
    <edge id=":D1_1" function="internal">
        <lane id=":D1_1_0" index="0" speed="19.44" length="5.00" shape="298.55,-1.65 299.91,-1.46 300.88,-0.88 301.46,0.09 301.65,1.45"/>
    </edge>
    <edge id=":D2_0" function="internal">
        <lane id=":D2_0_0" index="0" speed="19.44" length="5.00" shape="304.75,101.65 303.39,101.84 302.42,102.43 301.84,103.39 301.65,104.75"/>
    </edge>
    <edge id=":D2_1" function="internal">
        <lane id=":D2_1_0" index="0" speed="19.44" length="6.20" shape="304.75,101.65 298.55,101.65"/>
    </edge>
    <edge id=":D2_2" function="internal">
        <lane id=":D2_2_0" index="0" speed="19.44" length="6.20" shape="301.65,98.55 301.65,104.75"/>
    </edge>
    <edge id=":D2_3" function="internal">
        <lane id=":D2_3_0" index="0" speed="19.44" length="5.00" shape="301.65,98.55 301.46,99.91 300.88,100.88 299.91,101.46 298.55,101.65"/>
    </edge>
    <edge id=":D3_0" function="internal">
        <lane id=":D3_0_0" index="0" speed="19.44" length="5.00" shape="301.65,195.25 301.84,196.61 302.42,197.58 303.39,198.16 304.75,198.35"/>
    </edge>
    <edge id=":D3_1" function="internal">
        <lane id=":D3_1_0" index="0" speed="19.44" length="6.20" shape="301.65,195.25 301.65,201.45"/>
    </edge>
    <edge id=":D3_2" function="internal">
        <lane id=":D3_2_0" index="0" speed="19.44" length="6.20" shape="298.55,198.35 304.75,198.35"/>
    </edge>
    <edge id=":D3_3" function="internal">
        <lane id=":D3_3_0" index="0" speed="19.44" length="5.00" shape="298.55,198.35 299.91,198.54 300.88,199.13 301.46,200.09 301.65,201.45"/>
    </edge>
    <edge id=":D4_0" function="internal">
        <lane id=":D4_0_0" index="0" speed="19.44" length="5.00" shape="304.75,301.65 303.39,301.84 302.42,302.42 301.84,303.39 301.65,304.75"/>
    </edge>
    <edge id=":D4_1" function="internal">
        <lane id=":D4_1_0" index="0" speed="19.44" length="6.20" shape="304.75,301.65 298.55,301.65"/>
    </edge>
    <edge id=":D4_2" function="internal">
        <lane id=":D4_2_0" index="0" speed="19.44" length="6.20" shape="301.65,298.55 301.65,304.75"/>
    </edge>
    <edge id=":D4_3" function="internal">
        <lane id=":D4_3_0" index="0" speed="19.44" length="5.00" shape="301.65,298.55 301.46,299.91 300.88,300.88 299.91,301.46 298.55,301.65"/>
    </edge>
    <edge id=":D5_0" function="internal">
        <lane id=":D5_0_0" index="0" speed="19.44" length="5.00" shape="301.65,395.25 301.84,396.61 302.42,397.58 303.39,398.16 304.75,398.35"/>
    </edge>
    <edge id=":D5_1" function="internal">
        <lane id=":D5_1_0" index="0" speed="19.44" length="6.20" shape="301.65,395.25 301.65,401.45"/>
    </edge>
    <edge id=":D5_2" function="internal">
        <lane id=":D5_2_0" index="0" speed="19.44" length="6.20" shape="298.55,398.35 304.75,398.35"/>
    </edge>
    <edge id=":D5_3" function="internal">
        <lane id=":D5_3_0" index="0" speed="19.44" length="5.00" shape="298.55,398.35 299.91,398.54 300.88,399.13 301.46,400.09 301.65,401.45"/>
    </edge>
    <edge id=":D6_0" function="internal">
        <lane id=":D6_0_0" index="0" speed="19.44" length="5.00" shape="304.75,501.65 303.39,501.84 302.42,502.42 301.84,503.39 301.65,504.75"/>
    </edge>
    <edge id=":D6_1" function="internal">
        <lane id=":D6_1_0" index="0" speed="19.44" length="6.20" shape="304.75,501.65 298.55,501.65"/>
    </edge>
    <edge id=":D6_2" function="internal">
        <lane id=":D6_2_0" index="0" speed="19.44" length="6.20" shape="301.65,498.55 301.65,504.75"/>
    </edge>
    <edge id=":D6_3" function="internal">
        <lane id=":D6_3_0" index="0" speed="19.44" length="5.00" shape="301.65,498.55 301.46,499.91 300.88,500.88 299.91,501.46 298.55,501.65"/>
    </edge>
    <edge id=":D7_0" function="internal">
        <lane id=":D7_0_0" index="0" speed="19.44" length="5.00" shape="301.65,595.25 301.84,596.61 302.42,597.58 303.39,598.16 304.75,598.35"/>
    </edge>
    <edge id=":D7_1" function="internal">
        <lane id=":D7_1_0" index="0" speed="19.44" length="6.20" shape="301.65,595.25 301.65,601.45"/>
    </edge>
    <edge id=":D7_2" function="internal">
        <lane id=":D7_2_0" index="0" speed="19.44" length="6.20" shape="298.55,598.35 304.75,598.35"/>
    </edge>
    <edge id=":D7_3" function="internal">
        <lane id=":D7_3_0" index="0" speed="19.44" length="5.00" shape="298.55,598.35 299.91,598.54 300.88,599.13 301.46,600.09 301.65,601.45"/>
    </edge>
    <edge id=":D8_0" function="internal">
        <lane id=":D8_0_0" index="0" speed="19.44" length="6.20" shape="304.75,701.65 298.55,701.65"/>
    </edge>
    <edge id=":D8_1" function="internal">
        <lane id=":D8_1_0" index="0" speed="19.44" length="5.00" shape="301.65,698.55 301.46,699.91 300.88,700.88 299.91,701.46 298.55,701.65"/>
    </edge>
    <edge id=":E1_0" function="internal">
        <lane id=":E1_0_0" index="0" speed="19.44" length="5.00" shape="398.35,1.45 398.54,0.09 399.13,-0.87 400.09,-1.46 401.45,-1.65"/>
    </edge>
    <edge id=":E1_1" function="internal">
        <lane id=":E1_1_0" index="0" speed="19.44" length="6.20" shape="395.25,-1.65 401.45,-1.65"/>
    </edge>
    <edge id=":E2_0" function="internal">
        <lane id=":E2_0_0" index="0" speed="19.44" length="5.00" shape="398.35,104.75 398.16,103.39 397.58,102.43 396.61,101.84 395.25,101.65"/>
    </edge>
    <edge id=":E2_1" function="internal">
        <lane id=":E2_1_0" index="0" speed="19.44" length="6.20" shape="398.35,104.75 398.35,98.55"/>
    </edge>
    <edge id=":E2_2" function="internal">
        <lane id=":E2_2_0" index="0" speed="19.44" length="6.20" shape="401.45,101.65 395.25,101.65"/>
    </edge>
    <edge id=":E2_3" function="internal">
        <lane id=":E2_3_0" index="0" speed="19.44" length="5.00" shape="401.45,101.65 400.09,101.46 399.13,100.88 398.54,99.91 398.35,98.55"/>
    </edge>
    <edge id=":E3_0" function="internal">
        <lane id=":E3_0_0" index="0" speed="19.44" length="6.20" shape="398.35,201.45 398.35,195.25"/>
    </edge>
    <edge id=":E3_1" function="internal">
        <lane id=":E3_1_0" index="0" speed="19.44" length="5.00" shape="398.35,201.45 398.54,200.09 399.13,199.13 400.09,198.54 401.45,198.35"/>
    </edge>
    <edge id=":E3_2" function="internal">
        <lane id=":E3_2_0" index="0" speed="19.44" length="5.00" shape="395.25,198.35 396.61,198.16 397.58,197.57 398.16,196.61 398.35,195.25"/>
    </edge>
    <edge id=":E3_3" function="internal">
        <lane id=":E3_3_0" index="0" speed="19.44" length="6.20" shape="395.25,198.35 401.45,198.35"/>
    </edge>
    <edge id=":E4_0" function="internal">
        <lane id=":E4_0_0" index="0" speed="19.44" length="5.00" shape="398.35,304.75 398.16,303.39 397.58,302.42 396.61,301.84 395.25,301.65"/>
    </edge>
    <edge id=":E4_1" function="internal">
        <lane id=":E4_1_0" index="0" speed="19.44" length="6.20" shape="398.35,304.75 398.35,298.55"/>
    </edge>
    <edge id=":E4_2" function="internal">
        <lane id=":E4_2_0" index="0" speed="19.44" length="6.20" shape="401.45,301.65 395.25,301.65"/>
    </edge>
    <edge id=":E4_3" function="internal">
        <lane id=":E4_3_0" index="0" speed="19.44" length="5.00" shape="401.45,301.65 400.09,301.46 399.13,300.88 398.54,299.91 398.35,298.55"/>
    </edge>
    <edge id=":E5_0" function="internal">
        <lane id=":E5_0_0" index="0" speed="19.44" length="6.20" shape="398.35,401.45 398.35,395.25"/>
    </edge>
    <edge id=":E5_1" function="internal">
        <lane id=":E5_1_0" index="0" speed="19.44" length="5.00" shape="398.35,401.45 398.54,400.09 399.13,399.13 400.09,398.54 401.45,398.35"/>
    </edge>
    <edge id=":E5_2" function="internal">
        <lane id=":E5_2_0" index="0" speed="19.44" length="5.00" shape="395.25,398.35 396.61,398.16 397.58,397.58 398.16,396.61 398.35,395.25"/>
    </edge>
    <edge id=":E5_3" function="internal">
        <lane id=":E5_3_0" index="0" speed="19.44" length="6.20" shape="395.25,398.35 401.45,398.35"/>
    </edge>
    <edge id=":E6_0" function="internal">
        <lane id=":E6_0_0" index="0" speed="19.44" length="5.00" shape="398.35,504.75 398.16,503.39 397.58,502.42 396.61,501.84 395.25,501.65"/>
    </edge>
    <edge id=":E6_1" function="internal">
        <lane id=":E6_1_0" index="0" speed="19.44" length="6.20" shape="398.35,504.75 398.35,498.55"/>
    </edge>
    <edge id=":E6_2" function="internal">
        <lane id=":E6_2_0" index="0" speed="19.44" length="6.20" shape="401.45,501.65 395.25,501.65"/>
    </edge>
    <edge id=":E6_3" function="internal">
        <lane id=":E6_3_0" index="0" speed="19.44" length="5.00" shape="401.45,501.65 400.09,501.46 399.13,500.87 398.54,499.91 398.35,498.55"/>
    </edge>
    <edge id=":E7_0" function="internal">
        <lane id=":E7_0_0" index="0" speed="19.44" length="6.20" shape="398.35,601.45 398.35,595.25"/>
    </edge>
    <edge id=":E7_1" function="internal">
        <lane id=":E7_1_0" index="0" speed="19.44" length="5.00" shape="398.35,601.45 398.54,600.09 399.13,599.13 400.09,598.54 401.45,598.35"/>
    </edge>
    <edge id=":E7_2" function="internal">
        <lane id=":E7_2_0" index="0" speed="19.44" length="5.00" shape="395.25,598.35 396.61,598.16 397.58,597.58 398.16,596.61 398.35,595.25"/>
    </edge>
    <edge id=":E7_3" function="internal">
        <lane id=":E7_3_0" index="0" speed="19.44" length="6.20" shape="395.25,598.35 401.45,598.35"/>
    </edge>
    <edge id=":E8_0" function="internal">
        <lane id=":E8_0_0" index="0" speed="19.44" length="6.20" shape="401.45,701.65 395.25,701.65"/>
    </edge>
    <edge id=":E8_1" function="internal">
        <lane id=":E8_1_0" index="0" speed="19.44" length="5.00" shape="401.45,701.65 400.09,701.46 399.13,700.88 398.54,699.91 398.35,698.55"/>
    </edge>
    <edge id=":F1_0" function="internal">
        <lane id=":F1_0_0" index="0" speed="19.44" length="6.20" shape="498.55,-1.65 504.75,-1.65"/>
    </edge>
    <edge id=":F1_1" function="internal">
        <lane id=":F1_1_0" index="0" speed="19.44" length="5.00" shape="498.55,-1.65 499.91,-1.46 500.88,-0.88 501.46,0.09 501.65,1.45"/>
    </edge>
    <edge id=":F2_0" function="internal">
        <lane id=":F2_0_0" index="0" speed="19.44" length="5.00" shape="504.75,101.65 503.39,101.84 502.42,102.43 501.84,103.39 501.65,104.75"/>
    </edge>
    <edge id=":F2_1" function="internal">
        <lane id=":F2_1_0" index="0" speed="19.44" length="6.20" shape="504.75,101.65 498.55,101.65"/>
    </edge>
    <edge id=":F2_2" function="internal">
        <lane id=":F2_2_0" index="0" speed="19.44" length="6.20" shape="501.65,98.55 501.65,104.75"/>
    </edge>
    <edge id=":F2_3" function="internal">
        <lane id=":F2_3_0" index="0" speed="19.44" length="5.00" shape="501.65,98.55 501.46,99.91 500.87,100.88 499.91,101.46 498.55,101.65"/>
    </edge>
    <edge id=":F3_0" function="internal">
        <lane id=":F3_0_0" index="0" speed="19.44" length="5.00" shape="501.65,195.25 501.84,196.61 502.42,197.58 503.39,198.16 504.75,198.35"/>
    </edge>
    <edge id=":F3_1" function="internal">
        <lane id=":F3_1_0" index="0" speed="19.44" length="6.20" shape="501.65,195.25 501.65,201.45"/>
    </edge>
    <edge id=":F3_2" function="internal">
        <lane id=":F3_2_0" index="0" speed="19.44" length="6.20" shape="498.55,198.35 504.75,198.35"/>
    </edge>
    <edge id=":F3_3" function="internal">
        <lane id=":F3_3_0" index="0" speed="19.44" length="5.00" shape="498.55,198.35 499.91,198.54 500.88,199.13 501.46,200.09 501.65,201.45"/>
    </edge>
    <edge id=":F4_0" function="internal">
        <lane id=":F4_0_0" index="0" speed="19.44" length="5.00" shape="504.75,301.65 503.39,301.84 502.42,302.42 501.84,303.39 501.65,304.75"/>
    </edge>
    <edge id=":F4_1" function="internal">
        <lane id=":F4_1_0" index="0" speed="19.44" length="6.20" shape="504.75,301.65 498.55,301.65"/>
    </edge>
    <edge id=":F4_2" function="internal">
        <lane id=":F4_2_0" index="0" speed="19.44" length="6.20" shape="501.65,298.55 501.65,304.75"/>
    </edge>
    <edge id=":F4_3" function="internal">
        <lane id=":F4_3_0" index="0" speed="19.44" length="5.00" shape="501.65,298.55 501.46,299.91 500.87,300.88 499.91,301.46 498.55,301.65"/>
    </edge>
    <edge id=":F5_0" function="internal">
        <lane id=":F5_0_0" index="0" speed="19.44" length="5.00" shape="501.65,395.25 501.84,396.61 502.42,397.58 503.39,398.16 504.75,398.35"/>
    </edge>
    <edge id=":F5_1" function="internal">
        <lane id=":F5_1_0" index="0" speed="19.44" length="6.20" shape="501.65,395.25 501.65,401.45"/>
    </edge>
    <edge id=":F5_2" function="internal">
        <lane id=":F5_2_0" index="0" speed="19.44" length="6.20" shape="498.55,398.35 504.75,398.35"/>
    </edge>
    <edge id=":F5_3" function="internal">
        <lane id=":F5_3_0" index="0" speed="19.44" length="5.00" shape="498.55,398.35 499.91,398.54 500.88,399.13 501.46,400.09 501.65,401.45"/>
    </edge>
    <edge id=":F6_0" function="internal">
        <lane id=":F6_0_0" index="0" speed="19.44" length="5.00" shape="504.75,501.65 503.39,501.84 502.42,502.42 501.84,503.39 501.65,504.75"/>
    </edge>
    <edge id=":F6_1" function="internal">
        <lane id=":F6_1_0" index="0" speed="19.44" length="6.20" shape="504.75,501.65 498.55,501.65"/>
    </edge>
    <edge id=":F6_2" function="internal">
        <lane id=":F6_2_0" index="0" speed="19.44" length="6.20" shape="501.65,498.55 501.65,504.75"/>
    </edge>
    <edge id=":F6_3" function="internal">
        <lane id=":F6_3_0" index="0" speed="19.44" length="5.00" shape="501.65,498.55 501.46,499.91 500.87,500.88 499.91,501.46 498.55,501.65"/>
    </edge>
    <edge id=":F7_0" function="internal">
        <lane id=":F7_0_0" index="0" speed="19.44" length="5.00" shape="501.65,595.25 501.84,596.61 502.42,597.58 503.39,598.16 504.75,598.35"/>
    </edge>
    <edge id=":F7_1" function="internal">
        <lane id=":F7_1_0" index="0" speed="19.44" length="6.20" shape="501.65,595.25 501.65,601.45"/>
    </edge>
    <edge id=":F7_2" function="internal">
        <lane id=":F7_2_0" index="0" speed="19.44" length="6.20" shape="498.55,598.35 504.75,598.35"/>
    </edge>
    <edge id=":F7_3" function="internal">
        <lane id=":F7_3_0" index="0" speed="19.44" length="5.00" shape="498.55,598.35 499.91,598.54 500.88,599.13 501.46,600.09 501.65,601.45"/>
    </edge>
    <edge id=":F8_0" function="internal">
        <lane id=":F8_0_0" index="0" speed="19.44" length="6.20" shape="504.75,701.65 498.55,701.65"/>
    </edge>
    <edge id=":F8_1" function="internal">
        <lane id=":F8_1_0" index="0" speed="19.44" length="5.00" shape="501.65,698.55 501.46,699.91 500.87,700.88 499.91,701.46 498.55,701.65"/>
    </edge>
    <edge id=":G1_0" function="internal">
        <lane id=":G1_0_0" index="0" speed="19.44" length="5.00" shape="598.35,1.45 598.54,0.09 599.13,-0.88 600.09,-1.46 601.45,-1.65"/>
    </edge>
    <edge id=":G1_1" function="internal">
        <lane id=":G1_1_0" index="0" speed="19.44" length="6.20" shape="595.25,-1.65 601.45,-1.65"/>
    </edge>
    <edge id=":G2_0" function="internal">
        <lane id=":G2_0_0" index="0" speed="19.44" length="5.00" shape="598.35,104.75 598.16,103.39 597.58,102.43 596.61,101.84 595.25,101.65"/>
    </edge>
    <edge id=":G2_1" function="internal">
        <lane id=":G2_1_0" index="0" speed="19.44" length="6.20" shape="598.35,104.75 598.35,98.55"/>
    </edge>
    <edge id=":G2_2" function="internal">
        <lane id=":G2_2_0" index="0" speed="19.44" length="6.20" shape="601.45,101.65 595.25,101.65"/>
    </edge>
    <edge id=":G2_3" function="internal">
        <lane id=":G2_3_0" index="0" speed="19.44" length="5.00" shape="601.45,101.65 600.09,101.46 599.13,100.88 598.54,99.91 598.35,98.55"/>
    </edge>
    <edge id=":G3_0" function="internal">
        <lane id=":G3_0_0" index="0" speed="19.44" length="6.20" shape="598.35,201.45 598.35,195.25"/>
    </edge>
    <edge id=":G3_1" function="internal">